LTspice 24.0.9 for Windows
Circuit: * C:\Users\user\Documents\GitHub\EEG-Individual-Project\Schematics\EEG_Schematic_LT.asc
Start Time: Fri Mar  8 21:57:17 2024
solver = Normal
Maximum thread count: 24
tnom = 27
temp = 27
method = modified trap
WARNING: Less than two connections to node n025.  This node is used by r19.
Direct Newton iteration failed to find .op point.  (Use ".option noopiter" to skip.)
Starting Gmin stepping
Gmin = 10
Gmin = 1.07374
vernier = 0.5
vernier = 0.25
vernier = 0.125
vernier = 0.0625
Gmin = 1.10559
vernier = 0.03125
vernier = 0.015625
Gmin = 1.04709
vernier = 0.0208333
vernier = 0.0104167
vernier = 0.00520833
Gmin = 1.0282
vernier = 0.00694444
vernier = 0.00347222
Gmin = 1.01932
vernier = 0.00462963
vernier = 0.00231481
vernier = 0.00308642
vernier = 0.00154321
Gmin = 1.0155
vernier = 0.00205761
vernier = 0.00102881
Gmin = 1.0125
vernier = 0.00137174
vernier = 0.00068587
Gmin = 1.01033
vernier = 0.000914493
vernier = 0.000457247
Gmin = 1.00866
vernier = 0.000609662
Gmin = 1.00731
vernier = 0.000812882
vernier = 0.000406441
vernier = 0.000541921
vernier = 0.000406441
Gmin = 1.00665
vernier = 0.000541921
vernier = 0.000406441
Gmin = 1.00583
Gmin = 0
Gmin stepping failed

Starting source stepping with srcstepmethod=0
Source Step = 3.0303%
Source Step = 16.6667%
Source Step = 24.2424%
Source Step = 31.8182%
Source Step = 39.3939%
Source Step = 46.9697%
vernier = 0.375
Source Step = 56.4394%
Source Step = 67.803%
Source Step = 79.1667%
Source Step = 90.5303%
Source stepping succeeded in finding the operating point.

Total elapsed time: 0.746 seconds.

